*Heading
** Job name: Job-2 Model name: moxing
** Generated by: Abaqus/CAE 2021
*Preprint, echo=NO, model=NO, history=NO, contact=NO
**
** PARTS
**
*Part, name=PART-1
*Node
      1,  0.123000003,  0.123000003,  0.150000006
      2, 0.0820000023,  0.123000003,  0.150000006
      3, 0.0410000011,  0.123000003,  0.150000006
      4,           0.,  0.123000003,  0.150000006
      5,           0., 0.0820000023,  0.150000006
      6,           0., 0.0410000011,  0.150000006
      7,           0.,           0.,  0.150000006
      8, 0.0410000011,           0.,  0.150000006
      9, 0.0820000023,           0.,  0.150000006
     10,  0.123000003,           0.,  0.150000006
     11,  0.123000003, 0.0410000011,  0.150000006
     12,  0.123000003, 0.0820000023,  0.150000006
     13, 0.0410000011, 0.0410000011,  0.150000006
     14, 0.0410000011, 0.0820000023,  0.150000006
     15, 0.0820000023, 0.0410000011,  0.150000006
     16, 0.0820000023, 0.0820000023,  0.150000006
     17,  0.229000002,  0.123000003,  0.150000006
     18,  0.175999999,  0.123000003,  0.150000006
     19,  0.175999999,           0.,  0.150000006
     20,  0.229000002,           0.,  0.150000006
** ... 2860 like lines cut
*Element, type=DC3D8
 532,  579,  459,  439,  580,  581,  461,  438,  582
 533,  578,  579,  580,  577,  583,  581,  582,  584
 534,  582,  581,  461,  438,  585,  586,  466,  437
 535,  585,  586,  466,  437,  587,  588,  465,  436
 536,  587,  588,  465,  436,  589,  590,  464,  435
 537,  589,  590,  464,  435,  591,  592,  463,  434
 538,  591,  592,  463,  434,  593,  594,  462,  433
 539,  584,  583,  581,  582,  595,  596,  586,  585
 540,  595,  596,  586,  585,  597,  598,  588,  587
 541,  597,  598,  588,  587,  599,  600,  590,  589
 542,  599,  600,  590,  589,  601,  602,  592,  591
 543,  601,  602,  592,  591,  603,  604,  594,  593
 544,  579,  580,  439,  459,  605,  606,  440,  460
 545,  605,  606,  440,  460,  607,  608,  441,  457
 546,  578,  577,  580,  579,  609,  610,  606,  605
 547,  609,  610,  606,  605,  611,  612,  608,  607
 548,  607,  611,  612,  608,  613,  616,  615,  614
 549,  613,  616,  615,  614,  617,  620,  619,  618
 550,  457,  607,  608,  441,  458,  613,  614,  442
 551,  458,  613,  614,  442,  456,  617,  618,  443
** ... 2096 like lines cut
*Elset, elset=UHPC
  532,  533,  534,  535,  536,  537,  538,  539,  540,  541,  542,  543,  544,  545,  546,  547
  548,  549,  550,  551,  552,  553,  554,  555,  556,  557,  558,  559,  560,  561,  562,  563
  564,  565,  566,  567,  568,  569,  570,  571,  572,  573,  574,  575,  576,  577,  578,  579
  580,  581,  582,  583,  584,  585,  586,  587,  588,  589,  590,  591,  592,  593,  594,  595
  596,  597,  598,  599,  600,  601,  602,  603,  604,  605,  606,  607,  608,  609,  610,  611
  612,  613,  614,  615,  616,  617,  618,  619,  620,  621,  622,  623,  624,  625,  626,  627
  628,  629,  630,  631,  632,  633,  634,  635,  636,  637,  638,  639,  640,  641,  642,  643
  644,  645,  646,  647,  648,  649,  650,  651,  652,  653,  654,  655,  656,  657,  658,  659
  660,  661,  662,  663,  664,  665,  666,  667,  668,  669,  670,  671,  672,  673,  674,  675
  676,  677,  678,  679,  680,  681,  682,  683,  684,  685,  686,  687,  688,  689,  690,  691
  692,  693,  694,  695,  696,  697,  698,  699,  700,  701,  702,  703,  704,  705,  706,  707
  708,  709,  710,  711,  712,  713,  714,  715,  716,  717,  718,  719,  720,  721,  722,  723
  724,  725,  726,  727,  728,  729,  730,  731,  732,  733,  734,  735,  736,  737,  738,  739
  740,  741,  742,  743,  744,  745,  746,  747,  748,  749,  750,  751,  752,  753,  754,  755
  756,  757,  758,  759,  760,  761,  762,  763,  764,  765,  766,  767,  768,  769,  770,  771
  772,  773,  774,  775,  776,  777,  778,  779,  780,  781,  782,  783,  784,  785,  786,  787
  788,  789,  790,  791,  792,  793,  794,  795,  796,  797,  798,  799,  800,  801,  802,  803
  804,  805,  806,  807,  808,  809,  810,  811,  812,  813,  814,  815,  816,  817,  818,  819
  820,  821,  826,  827,  828,  829,  830,  831,  832,  833,  834,  835,  836,  837,  838,  839
  840,  841,  842,  843,  844,  845,  846,  847,  848,  849,  850,  851,  852,  853,  854,  855
** ... 113 like lines cut
** Section: UHPC
*Solid Section, elset=UHPC, material=UHPC
,
*End Part
**  
**
** ASSEMBLY
**
*Assembly, name=Assembly
**  
*Instance, name=PART-1-1, part=PART-1
*End Instance
**  
*Elset, elset=DRAWING2_BODY1, instance=PART-1-1
  532,  533,  534,  535,  536,  537,  538,  539,  540,  541,  542,  543,  544,  545,  546,  547
  548,  549,  550,  551,  552,  553,  554,  555,  556,  557,  558,  559,  560,  561,  562,  563
  564,  565,  566,  567,  568,  569,  570,  571,  572,  573,  574,  575,  576,  577,  578,  579
  580,  581,  582,  583,  584,  585,  586,  587,  588,  589,  590,  591,  592,  593,  594,  595
  596,  597,  598,  599,  600,  601,  602,  603,  604,  605,  606,  607,  608,  609,  610,  611
  612,  613,  614,  615,  616,  617,  618,  619,  620,  621,  622,  623,  624,  625,  626,  627
  628,  629,  630,  631,  632,  633,  634,  635,  636,  637,  638,  639,  640,  641,  642,  643
  644,  645,  646,  647,  648,  649,  650,  651,  652,  653,  654,  655,  656,  657,  658,  659
  660,  661,  662,  663,  664,  665,  666,  667,  668,  669,  670,  671,  672,  673,  674,  675
  676,  677,  678,  679,  680,  681,  682,  683,  684,  685,  686,  687,  688,  689,  690,  691
  692,  693,  694,  695,  696,  697,  698,  699,  700,  701,  702,  703,  704,  705,  706,  707
  708,  709,  710,  711,  712,  713,  714,  715,  716,  717,  718,  719,  720,  721,  722,  723
  724,  725,  726,  727,  728,  729,  730,  731,  732,  733,  734,  735,  736,  737,  738,  739
  740,  741,  742,  743,  744,  745,  746,  747,  748,  749,  750,  751,  752,  753,  754,  755
  756,  757,  758,  759,  760,  761,  762,  763,  764,  765,  766,  767,  768,  769,  770,  771
  772,  773,  774,  775,  776,  777,  778,  779,  780,  781,  782,  783,  784,  785,  786,  787
  788,  789,  790,  791,  792,  793,  794,  795,  796,  797,  798,  799,  800,  801,  802,  803
  804,  805,  806,  807,  808,  809,  810,  811,  812,  813,  814,  815,  816,  817,  818,  819
  820,  821,  826,  827,  828,  829,  830,  831,  832,  833,  834,  835,  836,  837,  838,  839
  840,  841,  842,  843,  844,  845,  846,  847,  848,  849,  850,  851,  852,  853,  854,  855
** ... 113 like lines cut
*Nset, nset=Set-3, instance=PART-1-1, generate
    1,  2880,     1
*Nset, nset=Set-4, instance=PART-1-1
    1,    2,    3,    4,    5,    6,    7,    8,    9,   10,   11,   12,   13,   14,   15,   16
   17,   18,   19,   20,   21,   22,   23,   24,   25,   26,   27,   28,   29,   30,   31,   32
   33,   34,   35,   36,   37,   38,   39,   40,   41,   42,   43,   44,   45,   46,   47,   48
   49,   50,   51,   52,   53,   54,   55,   56,   57,   58,   59,   60,   61,   62,   63,   64
   65,   66,   67,   68,   69,   70,   71,   72,   73,   74,   75,   76,   77,   78,   79,   80
   81,   82,   83,   84,   85,   86,   87,   88,   89,   90,   91,   92,   93,   94,   95,   96
   97,   98,   99,  100,  101,  102,  103,  104,  105,  106,  107,  108,  109,  110,  111,  112
  113,  114,  115,  116,  117,  118,  119,  120,  121,  122,  123,  124,  125,  126,  127,  128
  129,  130,  131,  132,  133,  134,  135,  136,  137,  138,  139,  140,  141,  142,  143,  144
  145,  146,  147,  148,  149,  150,  151,  152,  153,  154,  155,  156,  157,  158,  159,  160
  161,  162,  163,  164,  165,  166,  167,  168,  169,  170,  171,  172,  173,  174,  175,  176
  177,  178,  179,  180,  181,  182,  183,  184,  185,  186,  187,  188,  189,  190,  191,  192
  193,  194,  195,  196,  197,  198,  199,  200,  201,  202,  203,  204,  205,  206,  207,  208
  209,  210,  211,  212,  213,  214,  215,  216,  217,  218,  219,  220,  221,  222,  223,  224
  225,  226,  227,  228,  229,  230,  231,  232,  233,  234,  235,  236,  237,  238,  239,  240
  241,  242,  243,  244,  245,  246,  247,  248,  249,  250,  251,  252,  253,  254,  255,  256
  257,  258,  259,  260,  261,  262,  263,  264,  265,  266,  267,  268,  269,  270,  271,  272
  273,  274,  275,  276,  277,  278,  279,  280,  281,  282,  283,  284,  285,  286,  287,  288
  289,  290,  291,  292,  293,  294,  295,  296,  297,  298,  299,  300,  301,  302,  303,  304
  305,  306,  307,  308,  309,  310,  311,  312,  313,  314,  315,  316,  317,  318,  319,  320
** ... 70 like lines cut
*Nset, nset=Set-5, instance=PART-1-1
    1,    2,    3,    4,    5,    6,    7,    8,    9,   10,   11,   12,   13,   14,   15,   16
   17,   18,   19,   20,   21,   22,   23,   24,   25,   26,   27,   28,   29,   30,   31,   32
   33,   34,   35,   36,   37,   38,   39,   40,   41,   42,   43,   44,   45,   46,   47,   48
   49,   50,   51,   52,   53,   54,   55,   56,   57,   58,   59,   60,   61,   62,   63,   64
   65,   66,   67,   68,   69,   70,   71,   72,   73,   74,   75,   76,   77,   78,   79,   80
   81,   82,   83,   84,   85,   86,   87,   88,   89,   90,   91,   92,   93,   94,   95,   96
   97,   98,   99,  100,  101,  102,  103,  104,  105,  106,  107,  108,  109,  110,  111,  112
  113,  114,  115,  116,  117,  118,  119,  120,  121,  122,  123,  124,  125,  126,  127,  128
  129,  130,  131,  132,  133,  134,  135,  136,  137,  138,  139,  140,  141,  142,  143,  144
  145,  146,  147,  148,  149,  150,  151,  152,  153,  154,  155,  156,  157,  158,  159,  160
  161,  162,  163,  164,  165,  166,  167,  168,  169,  170,  171,  172,  173,  174,  175,  176
  177,  178,  179,  180,  181,  182,  183,  184,  185,  186,  187,  188,  189,  190,  191,  192
  193,  194,  195,  196,  197,  198,  199,  200,  201,  202,  203,  204,  205,  206,  207,  208
  209,  210,  211,  212,  213,  214,  215,  216,  217,  218,  219,  220,  221,  222,  223,  224
  225,  226,  227,  228,  229,  230,  231,  232,  233,  234,  235,  236,  237,  238,  239,  240
  241,  242,  243,  244,  245,  246,  247,  248,  249,  250,  251,  252,  253,  254,  255,  256
  257,  258,  259,  260,  261,  262,  263,  264,  265,  266,  267,  268,  269,  270,  271,  272
  273,  274,  275,  276,  277,  278,  279,  280,  281,  282,  283,  284,  285,  286,  287,  288
  289,  290,  291,  292,  293,  294,  295,  296,  297,  298,  299,  300,  301,  302,  303,  304
  305,  306,  307,  308,  309,  310,  311,  312,  313,  314,  315,  316,  317,  318,  319,  320
** ... 70 like lines cut
*Elset, elset=_CEMIAN1_S2, internal, instance=PART-1-1
 1132, 1137, 1142, 1147, 1152, 1157, 1162, 1167, 1172, 1177, 1202, 1207, 1212, 1217, 1222, 1227
 1232, 1237, 1242, 1247, 1676, 1681
*Elset, elset=_CEMIAN1_S3, internal, instance=PART-1-1
 1308, 1309, 1310, 1311, 1450, 1451, 1458, 1459, 1528, 1529, 1536, 1537
*Elset, elset=_CEMIAN1_S4, internal, instance=PART-1-1
 1315, 1322, 2041, 2042, 2047, 2048
*Elset, elset=_CEMIAN1_S5, internal, instance=PART-1-1
 1254, 1257, 1349, 1352, 1358, 1359, 1380, 1381, 1382, 1383, 1418, 1419, 1426, 1427, 1472, 1473
 1474, 1475, 1476, 1477, 1518, 1519, 1524, 1525, 1809, 1811
*Elset, elset=_CEMIAN1_S6, internal, instance=PART-1-1
 1266, 1267, 1272, 1273, 1406, 1407, 1410, 1411, 1556, 1557, 1562, 1563, 1566, 1567, 1819, 1820
 1825, 1826, 1845, 1846, 1853, 1854, 2011, 2012, 2013, 2014
*Surface, type=ELEMENT, name=CEMIAN1
_CEMIAN1_S2, S2
_CEMIAN1_S3, S3
_CEMIAN1_S4, S4
_CEMIAN1_S6, S6
_CEMIAN1_S5, S5
*Elset, elset=_CEMIAN2_S1, internal, instance=PART-1-1, generate
 948,  975,    3
*Elset, elset=_CEMIAN2_S2, internal, instance=PART-1-1
  794,  797,  800,  803,  806,  809,  812,  815,  818,  821, 1714, 1717
*Elset, elset=_CEMIAN2_S3, internal, instance=PART-1-1
 1624, 1625, 1646, 1647, 1648, 1649, 1724, 1725, 1726, 1727, 1787, 1788, 1789, 1790, 2425, 2426
 2551, 2552, 2559, 2560, 2565, 2566, 2573, 2574
*Elset, elset=_CEMIAN2_S4, internal, instance=PART-1-1
 2133, 2134, 2135, 2136, 2287, 2288, 2303, 2304, 2507, 2508, 2509, 2510
*Elset, elset=_CEMIAN2_S5, internal, instance=PART-1-1
 1179, 1180, 1743, 1744, 2365, 2366, 2367, 2368, 2421, 2422, 2429, 2430
*Elset, elset=_CEMIAN2_S6, internal, instance=PART-1-1
 1628, 1629, 1632, 1633, 2125, 2126, 2161, 2162, 2163, 2164, 2233, 2234, 2235, 2236, 2341, 2342
 2349, 2350, 2481, 2482, 2489, 2490
*Surface, type=ELEMENT, name=CEMIAN2
_CEMIAN2_S1, S1
_CEMIAN2_S2, S2
_CEMIAN2_S4, S4
_CEMIAN2_S6, S6
_CEMIAN2_S3, S3
_CEMIAN2_S5, S5
*Elset, elset=_CEMIAN3_S2, internal, instance=PART-1-1
 574, 577, 908, 911, 914, 917
*Elset, elset=_CEMIAN3_S3, internal, instance=PART-1-1
 1554, 1555, 1580, 1581, 1584, 1585, 2123, 2124, 2125, 2126, 2131, 2132, 2631, 2632, 2637, 2638
 2742, 2743
*Elset, elset=_CEMIAN3_S4, internal, instance=PART-1-1
 1470, 1471, 1476, 1477, 1480, 1481, 1486, 1487, 1602, 1603, 1606, 1607, 1858, 1861, 2425, 2426
 2433, 2434, 2435, 2436, 2683, 2684, 2685, 2686
*Elset, elset=_CEMIAN3_S5, internal, instance=PART-1-1
  630,  631,  636,  637,  651,  653, 1466, 1467, 1558, 1559, 1560, 1561, 1562, 1563, 1576, 1577
 1885, 1886, 1887, 1888, 2109, 2110, 2119, 2120, 2695, 2696, 2705, 2706
*Elset, elset=_CEMIAN3_S6, internal, instance=PART-1-1
  924,  925,  926,  927, 1496, 1497, 2443, 2444, 2447, 2448, 2708, 2711, 2721, 2722, 2723, 2724
*Surface, type=ELEMENT, name=CEMIAN3
_CEMIAN3_S2, S2
_CEMIAN3_S3, S3
_CEMIAN3_S4, S4
_CEMIAN3_S6, S6
_CEMIAN3_S5, S5
*Elset, elset=_CEMIAN4_S1, internal, instance=PART-1-1, generate
 826,  841,    5
*Elset, elset=_CEMIAN4_S2, internal, instance=PART-1-1
 538, 543
*Elset, elset=_CEMIAN4_S3, internal, instance=PART-1-1
  594,  595,  596,  597,  752,  753,  762,  763, 1004, 1005, 1016, 1017, 1074, 1076, 1148, 1149
 1150, 1151, 1152, 1173, 1174, 1175, 1176, 1177, 1190, 1191
*Elset, elset=_CEMIAN4_S4, internal, instance=PART-1-1
  780,  781,  790,  791, 1026, 1027, 1036, 1037, 1090, 1091, 1096, 1097, 1198, 1199, 1200, 1201
 1202, 1213, 1214, 1215, 1216, 1217
*Elset, elset=_CEMIAN4_S5, internal, instance=PART-1-1
  578,  580,  608,  609,  616,  617,  792,  793,  794,  816,  817,  818,  951,  952,  953,  972
  973,  974, 1048, 1049, 1054, 1055, 1114, 1115, 1116, 1117
*Elset, elset=_CEMIAN4_S6, internal, instance=PART-1-1
  674,  675,  682,  683,  988,  989,  996,  997, 1058, 1059, 1120, 1126
*Surface, type=ELEMENT, name=CEMIAN4
_CEMIAN4_S1, S1
_CEMIAN4_S2, S2
_CEMIAN4_S4, S4
_CEMIAN4_S6, S6
_CEMIAN4_S3, S3
_CEMIAN4_S5, S5
*Elset, elset=_DIMIAN_S1, internal, instance=PART-1-1, generate
 1787,  1797,     2
*Elset, elset=_DIMIAN_S2, internal, instance=PART-1-1
 1549, 1551, 1553, 1555, 1557, 1559, 1561, 1563, 1565, 1567, 1569, 1571, 1573, 1575, 1577, 1639
 1641, 1643, 1645, 1647, 1649, 1651, 1653, 1725, 1727, 1729, 1731, 1733, 1735, 1740, 1742, 1744
 1750, 1752, 1754, 1756, 1758, 1760, 1762, 1764, 1818, 1820, 1822, 1824, 1826, 1828, 1830, 1832
 1834, 1836, 1838, 1840, 1842, 1844, 1846, 1848, 1850, 1852, 1854, 1856, 2010, 2012, 2014, 2016
 2018, 2020, 2022, 2024, 2026, 2028, 2030, 2032, 2034, 2036, 2038, 2040, 2042, 2044, 2046, 2048
 2172, 2174, 2176, 2178, 2180, 2182, 2184, 2186, 2358, 2360, 2362, 2364, 2366, 2368, 2418, 2420
 2422, 2424, 2426, 2428, 2430, 2432, 2434, 2436, 2552, 2554, 2556, 2558, 2560, 2562, 2564, 2566
 2568, 2570, 2572, 2574
*Elset, elset=_DIMIAN_S3, internal, instance=PART-1-1
  982,  983,  988,  989, 1022, 1023, 1024, 1025, 1032, 1033, 1058, 1064, 1082, 1083, 1086, 1087
 1088, 1089, 1121, 1126, 1396, 1397, 1398, 1399, 1402, 1403, 1408, 1409, 1410, 1411, 1690, 1691
 1700, 1701, 1901, 1902, 1903, 1904, 1938, 1939, 1955, 1956, 1961, 1962, 2003, 2004, 2007, 2008
 2211, 2212, 2215, 2216, 2265, 2266, 2377, 2378, 2383, 2384, 2393, 2394, 2397, 2398, 2621, 2622
 2623, 2624, 2685, 2686, 2689, 2690, 2693, 2694, 2713, 2714, 2719, 2720, 2721, 2722, 2727, 2728
 2729, 2730, 2746, 2747, 2748, 2749, 2838, 2839, 2840, 2841, 2844, 2845, 2848, 2849, 2866, 2867
 2868, 2869
*Elset, elset=_DIMIAN_S4, internal, instance=PART-1-1
  957,  958,  959,  960,  961,  962,  975,  976,  977,  998,  999, 1016, 1017, 1046, 1047, 1050
 1051, 1056, 1057, 1072, 1076, 1102, 1103, 1106, 1107, 1108, 1109, 1168, 1169, 1170, 1171, 1172
 1173, 1174, 1175, 1176, 1177, 1446, 1447, 1448, 1449, 1454, 1455, 1458, 1459, 1460, 1461, 1668
 1669, 1677, 1678, 1679, 1680, 1681, 1692, 1704, 1705, 1869, 1870, 1890, 1891, 1913, 1914, 1919
 1920, 1921, 1922, 1951, 1952, 2270, 2272, 2406, 2408, 2414, 2415, 2647, 2653, 2654, 2657, 2658
 2695, 2696, 2697, 2698, 2703, 2704, 2756, 2757, 2758, 2759, 2770, 2771, 2774, 2777, 2783, 2784
 2786, 2787, 2790, 2792, 2860, 2861, 2864, 2865, 2880, 2881, 2882, 2883
*Elset, elset=_DIMIAN_S5, internal, instance=PART-1-1
  990,  991,  992,  993,  994,  995, 1034, 1035, 1036, 1037, 1060, 1063, 1065, 1090, 1091, 1092
 1093, 1119, 1124, 1127, 1683, 1695, 1710, 1711, 1857, 1858, 1860, 1873, 1874, 1972, 1974, 2049
 2051, 2053, 2055, 2441, 2442, 2443, 2444, 2445, 2446, 2577, 2578, 2579, 2580, 2661, 2662, 2665
 2666, 2669, 2670, 2673, 2674, 2677, 2678, 2679, 2681, 2710, 2711, 2712, 2762, 2765, 2779, 2781
*Elset, elset=_DIMIAN_S6, internal, instance=PART-1-1
  951,  952,  953,  969,  970,  971, 1008, 1009, 1010, 1011, 1014, 1015, 1040, 1041, 1054, 1055
 1069, 1073, 1077, 1100, 1101, 1116, 1117, 1133, 1134, 1135, 1136, 1137, 1138, 1139, 1140, 1141
 1142, 1153, 1154, 1155, 1156, 1157, 1358, 1364, 1365, 1366, 1367, 1599, 1620, 1621, 1625, 1662
 1665, 1686, 1687, 1698, 1699, 1712, 1713, 1714, 1807, 1808, 1809, 1814, 1816, 1865, 1866, 1872
 1879, 1880, 1881, 1882, 1887, 1888, 1895, 1896, 1897, 1898, 1925, 1926, 1927, 1928, 1943, 1944
 1947, 1948, 1950, 1977, 1978, 1979, 1980, 2061, 2062, 2063, 2064, 2067, 2068, 2069, 2070, 2197
 2198, 2201, 2202, 2245, 2246, 2249, 2250, 2253, 2254, 2259, 2260, 2629, 2630, 2635, 2636, 2637
 2638, 2639, 2640, 2641, 2642, 2650, 2740, 2742, 2744, 2798, 2799, 2800, 2801, 2802, 2803, 2806
 2807, 2810, 2811, 2812, 2813, 2820, 2821, 2824, 2825
*Surface, type=ELEMENT, name=DIMIAN
_DIMIAN_S1, S1
_DIMIAN_S2, S2
_DIMIAN_S4, S4
_DIMIAN_S6, S6
_DIMIAN_S3, S3
_DIMIAN_S5, S5
*Elset, elset=_DINGMIAN_S1, internal, instance=PART-1-1
  588,  590,  592,  594,  596,  598,  600,  602,  604,  606,  670,  742,  744,  746,  748, 1368
 1370, 1372, 1374, 1376, 1378, 1380, 1382, 1384, 1386, 1416, 1418, 1420, 1422, 1424, 1426, 1428
 1430, 1432, 1434, 1470, 1472, 1474, 1476, 1478, 1480, 1482, 1484, 1486, 1488, 1490, 1492, 1494
 1496, 1498, 1508, 1510, 1512, 1514, 1516, 1518, 1520, 1522, 1524, 1526, 1528, 1530, 1532, 1534
 1536, 1538, 1540, 1542, 1544, 1546, 1626, 1628, 1630, 1632, 1634, 1636, 1765, 1767, 1769, 1771
 2121, 2123, 2125, 2127, 2129, 2131, 2133, 2135, 2137, 2155, 2157, 2159, 2161, 2163, 2165, 2287
 2289, 2291, 2339, 2341, 2343, 2345, 2347, 2349, 2373, 2375, 2479, 2481, 2483, 2485, 2487, 2489
*Elset, elset=_DINGMIAN_S2, internal, instance=PART-1-1
 2234, 2236, 2238, 2240, 2242, 2244, 2300, 2302, 2304, 2318, 2320, 2322, 2324, 2500, 2502, 2504
 2506, 2508, 2510
*Elset, elset=_DINGMIAN_S3, internal, instance=PART-1-1
  553,  564,  565,  672,  673,  674,  675,  678,  679,  684,  685,  686,  687,  692,  695,  731
  733,  848,  864,  865,  873,  884,  885,  898,  899, 1198, 1199, 1200, 1201, 1202, 1223, 1224
 1225, 1226, 1227, 1228, 1229, 1230, 1231, 1232, 1238, 1239, 1240, 1241, 1242, 1243, 1244, 1245
 1246, 1247, 1312, 1314, 1318, 1320, 1321, 1322, 1440, 1441, 1600, 1601, 1602, 1603, 1604, 1605
 1614, 1615, 1616, 1617, 1654, 1655, 1656, 1657, 2085, 2088, 2141, 2142, 2143, 2144, 2273, 2274
 2279, 2280, 2309, 2310, 2311, 2312, 2531, 2532, 2533, 2534, 2589, 2590, 2591, 2592
*Elset, elset=_DINGMIAN_S4, internal, instance=PART-1-1
  532,  555,  570,  571,  608,  609,  610,  611,  614,  615,  620,  621,  624,  625,  649,  650
  651,  663,  664,  666,  668,  696,  697,  708,  711,  720,  722,  728,  736,  737,  738,  739
  750,  751,  752,  753,  754,  755,  756,  757,  764,  765,  771,  831,  832,  833,  834,  835
  856,  857,  869,  876,  877,  892,  893,  906,  907,  908, 1248, 1250, 1251, 1255, 1257, 1259
 1286, 1287, 1344, 1348, 1349, 1350, 1351, 1356, 1994, 1996, 2091, 2092, 2109, 2110, 2111, 2112
 2117, 2118, 2147, 2148, 2153, 2154, 2449, 2451, 2454, 2456, 2461, 2462, 2465, 2466, 2547, 2548
 2549, 2550, 2603, 2604, 2605, 2606, 2611, 2612
*Elset, elset=_DINGMIAN_S5, internal, instance=PART-1-1
  534,  535,  536,  537,  538,  544,  545,  556,  557,  572,  573,  574,  772,  773,  778,  779
  780,  781,  786,  787,  788,  789,  849,  860,  861,  870,  888,  889,  904,  905,  918,  919
  924,  925,  928,  929,  930,  931,  936,  937, 1262, 1263, 1268, 1269, 1272, 1273, 1274, 1275
 1276, 1277, 1326, 1327, 1328, 1329, 1963, 1964, 1967, 1968, 1985, 1986, 1989, 1990, 1997, 2000
 2512, 2514, 2617, 2618
*Elset, elset=_DINGMIAN_S6, internal, instance=PART-1-1
  550,  551,  562,  563,  579,  580,  582,  583,  587,  630,  631,  634,  635,  638,  639,  640
  641,  644,  645,  654,  655,  658,  659,  700,  701,  702,  703,  712,  713,  718,  719,  724
  725,  792,  793,  794,  804,  805,  806,  807,  808,  809,  810,  811,  812,  813,  814,  815
  826,  827,  828,  829,  830,  854,  855,  868,  878,  879,  894,  895,  909,  910,  911, 1178
 1179, 1181, 1186, 1187, 1188, 1190, 1193, 1195, 1197, 1288, 1289, 1292, 1293, 1300, 1301, 1304
 1305, 1306, 1307, 1308, 1309, 1332, 1333, 1340, 1341, 1392, 1395, 1464, 1466, 1469, 1502, 1503
 1505, 1507, 1582, 1583, 1584, 1585, 1586, 1587, 1592, 1593, 1594, 1595, 1773, 1774, 1777, 1778
 1803, 1804, 1805, 1806, 2073, 2074, 2079, 2080, 2101, 2102, 2103, 2104, 2385, 2386, 2387, 2388
 2517, 2518, 2521, 2522
*Surface, type=ELEMENT, name=DINGMIAN
_DINGMIAN_S1, S1
_DINGMIAN_S2, S2
_DINGMIAN_S4, S4
_DINGMIAN_S6, S6
_DINGMIAN_S3, S3
_DINGMIAN_S5, S5
*End Assembly
*Amplitude, name=Curing, time=TOTAL TIME
             0.,             16.,             50.,             16.,             60.,             90.,            110.,             90.
           120.,             16.,            180.,             16.
** 
** MATERIALS
** 
*Material, name=UHPC
*Conductivity
9600.,
*Density
2400.,
*Depvar
     20,
*Heat Generation
*Specific Heat
950.,
** 
** PREDEFINED FIELDS
** 
** Name: UHPCtemp   Type: Temperature
*Initial Conditions, type=TEMPERATURE
Set-3, 31.
** ----------------------------------------------------------------
** 
** STEP: Step-1
** 
*Step, name=Step-1, nlgeom=NO, inc=10000
*Heat Transfer, end=PERIOD, deltmx=80.
0.01, 50., 1e-05, 0.5, 
** 
** LOADS
** 
** Name: Load-1   Type: Surface heat flux
*Dsflux
DINGMIAN, SNU, 1.
** Name: Load-2   Type: Surface heat flux
*Dsflux
CEMIAN1, SNU, 1.
** Name: Load-3   Type: Surface heat flux
*Dsflux
CEMIAN2, SNU, 1.
** Name: Load-4   Type: Surface heat flux
*Dsflux
CEMIAN3, SNU, 1.
** Name: Load-5   Type: Surface heat flux
*Dsflux
CEMIAN4, SNU, 1.
** Name: Load-6   Type: Surface heat flux
*Dsflux
DIMIAN, SNU, 1.
** 
** INTERACTIONS
** 
** Interaction: Int-1
*Sfilm
DINGMIAN, FNU, 1., 1.
** Interaction: Int-2
*Sfilm
CEMIAN3, FNU, 1., 1.
** Interaction: Int-3
*Sfilm
CEMIAN2, FNU, 1., 1.
** Interaction: Int-4
*Sfilm
CEMIAN4, FNU, 1., 1.
** Interaction: Int-5
*Sfilm
CEMIAN1, FNU, 1., 1.
** Interaction: Int-6
*Sfilm
DIMIAN, FNU, 1., 1.
** 
** OUTPUT REQUESTS
** 
*Restart, write, frequency=0
** 
** FIELD OUTPUT: F-Output-1
** 
*Output, field
*Node Output
NT, RFL
*Element Output, directions=YES
HFL, SDV
*Output, history, frequency=0
*End Step
** ----------------------------------------------------------------
** 
** STEP: Step-2
** 
*Step, name=Step-2, nlgeom=NO, inc=10000
*Heat Transfer, end=PERIOD, deltmx=80.
0.01, 60., 1e-05, 0.5, 
** 
** BOUNDARY CONDITIONS
** 
** Name: BC-1 Type: Temperature
*Boundary, amplitude=Curing
Set-5, 11, 11, 1.
** 
** OUTPUT REQUESTS
** 
*Restart, write, frequency=0
** 
** FIELD OUTPUT: F-Output-1
** 
*Output, field
*Node Output
NT, RFL
*Element Output, directions=YES
HFL, SDV
*Output, history, frequency=0
*End Step
** ----------------------------------------------------------------
** 
** STEP: Step-3
** 
*Step, name=Step-3, nlgeom=NO, inc=10000
*Heat Transfer, end=PERIOD, deltmx=80.
0.01, 10., 1e-05, 0.5, 
** 
** BOUNDARY CONDITIONS
** 
** Name: BC-1 Type: Temperature
*Boundary, op=NEW
** 
** OUTPUT REQUESTS
** 
*Restart, write, frequency=0
** 
** FIELD OUTPUT: F-Output-1
** 
*Output, field
*Node Output
NT, RFL
*Element Output, directions=YES
HFL, SDV
*Output, history, frequency=0
*End Step
** ----------------------------------------------------------------
** 
** STEP: Step-4
** 
*Step, name=Step-4, nlgeom=NO, inc=10000
*Heat Transfer, end=PERIOD, deltmx=80.
0.01, 60., 1e-05, 0.5, 
** 
** OUTPUT REQUESTS
** 
*Restart, write, frequency=0
** 
** FIELD OUTPUT: F-Output-1
** 
*Output, field
*Node Output
NT, RFL
*Element Output, directions=YES
HFL, SDV
*Output, history, frequency=0
*End Step
